*SPEF "IEEE 1481-1998"
*DESIGN "filter"
*DATE "Sun Nov 22 18:05:10 2020"
*VENDOR "Cadence Design Systems, Inc."
*PROGRAM "Innovus"
*VERSION "17.11-s080_1"
*DESIGN_FLOW "COUPLING C" "PIN_CAP NONE" "NAME_SCOPE LOCAL"
*DIVIDER /
*DELIMITER :
*BUS_DELIMITER []
*T_UNIT 1 NS
*C_UNIT 1 PF
*R_UNIT 1 OHM
*L_UNIT 1 HENRY

// MMMC spef file for corner 'my_rc'

*NAME_MAP

*1 DIN[7]
*2 DIN[6]
*3 DIN[5]
*4 DIN[4]
*5 DIN[3]
*6 DIN[2]
*7 DIN[1]
*8 DIN[0]
*9 b0[7]
*10 b0[6]
*11 b0[5]
*12 b0[4]
*13 b0[3]
*14 b0[2]
*15 b0[1]
*16 b0[0]
*17 b1[7]
*18 b1[6]
*19 b1[5]
*20 b1[4]
*21 b1[3]
*22 b1[2]
*23 b1[1]
*24 b1[0]
*25 a1[7]
*26 a1[6]
*27 a1[5]
*28 a1[4]
*29 a1[3]
*30 a1[2]
*31 a1[1]
*32 a1[0]
*33 VIN
*34 RST_n
*35 CLK
*36 DOUT[7]
*37 DOUT[6]
*38 DOUT[5]
*39 DOUT[4]
*40 DOUT[3]
*41 DOUT[2]
*42 DOUT[1]
*43 DOUT[0]
*44 VOUT
*45 FE_OFN7_mult_66_n668
*46 FE_OFN6_mult_66_n714
*47 FE_OFN5_mult_77_n730
*48 FE_OFN4_mult_80_n255
*49 FE_OFN3_mult_80_n256
*50 FE_OFN2_n31
*51 FE_OFN1_n33
*52 FE_OFN0_delay1
*53 delay1
*54 n30
*55 n31
*56 n32
*57 n33
*58 n34
*59 n35
*60 wb0_tbs_9_
*61 wb0_tbs_14_
*62 wb0_tbs_13_
*63 wb0_tbs_12_
*64 wb0_tbs_11_
*65 wb0_tbs_10_
*66 ff_tbs_9_
*67 ff_tbs_14_
*68 ff_tbs_13_
*69 ff_tbs_12_
*70 ff_tbs_11_
*71 ff_tbs_10_
*72 n230
*73 n231
*74 n232
*75 n233
*76 n234
*77 n235
*78 n236
*79 n237
*80 n238
*81 n239
*82 n240
*83 n241
*84 n242
*85 n243
*86 n244
*87 n245
*88 n246
*89 n247
*90 n248
*91 n249
*92 n250
*93 n251
*94 n252
*95 n253
*96 n254
*97 n255
*98 n256
*99 n257
*100 n258
*101 n259
*102 n260
*103 n261
*104 n262
*105 n263
*106 n264
*107 n265
*108 n266
*109 n267
*110 n268
*111 n269
*112 n270
*113 n271
*114 n272
*115 n273
*116 n274
*117 n275
*118 n276
*119 n277
*120 n278
*121 n279
*122 n280
*123 n281
*124 n282
*125 n283
*126 n284
*127 reg_in_n8
*128 reg_in_n7
*129 reg_in_n6
*130 reg_in_n5
*131 reg_in_n4
*132 reg_in_n3
*133 reg_in_n2
*134 reg_in_n1
*135 reg_in_n12
*136 reg_in_n24
*137 reg_in_n23
*138 reg_in_n22
*139 reg_in_n21
*140 reg_in_n20
*141 reg_in_n19
*142 reg_in_n18
*143 reg_in_n17
*144 reg_in_n16
*145 reg_in_n15
*146 reg_in_n14
*147 reg_in_n13
*148 reg_in_n11
*149 reg_in_n10
*150 reg_in_n9
*151 reg_filter_n14
*152 reg_filter_n13
*153 reg_filter_n12
*154 reg_filter_n11
*155 reg_filter_n9
*156 reg_filter_n8
*157 reg_filter_n7
*158 reg_filter_n6
*159 reg_filter_n1
*160 reg_filter_n39
*161 reg_filter_n38
*162 reg_filter_n37
*163 reg_filter_n36
*164 reg_filter_n35
*165 reg_filter_n32
*166 reg_filter_n31
*167 reg_filter_n30
*168 reg_filter_n27
*169 reg_filter_n26
*170 reg_filter_n25
*171 reg_filter_n24
*172 reg_filter_n23
*173 reg_filter_n22
*174 reg_filter_n21
*175 reg_filter_n20
*176 reg_filter_n19
*177 reg_filter_n10
*178 reg_out_n8
*179 reg_out_n7
*180 reg_out_n6
*181 reg_out_n5
*182 reg_out_n4
*183 reg_out_n3
*184 reg_out_n17
*185 reg_out_n16
*186 reg_out_n15
*187 reg_out_n10
*188 reg_out_n9
*189 reg_out_n27
*190 reg_out_n26
*191 reg_out_n25
*192 reg_out_n24
*193 reg_out_n23
*194 reg_out_n22
*195 reg_out_n21
*196 reg_out_n14
*197 reg_out_n13
*198 reg_out_n12
*199 reg_out_n11
*200 mult_77_n699
*201 mult_77_n697
*202 mult_77_n696
*203 mult_77_n695
*204 mult_77_n694
*205 mult_77_n693
*206 mult_77_n692
*207 mult_77_n691
*208 mult_77_n690
*209 mult_77_n689
*210 mult_77_n688
*211 mult_77_n687
*212 mult_77_n686
*213 mult_77_n685
*214 mult_77_n684
*215 mult_77_n683
*216 mult_77_n682
*217 mult_77_n681
*218 mult_77_n680
*219 mult_77_n679
*220 mult_77_n678
*221 mult_77_n677
*222 mult_77_n676
*223 mult_77_n675
*224 mult_77_n674
*225 mult_77_n673
*226 mult_77_n672
*227 mult_77_n671
*228 mult_77_n670
*229 mult_77_n669
*230 mult_77_n668
*231 mult_77_n667
*232 mult_77_n666
*233 mult_77_n665
*234 mult_77_n664
*235 mult_77_n663
*236 mult_77_n662
*237 mult_77_n661
*238 mult_77_n660
*239 mult_77_n659
*240 mult_77_n658
*241 mult_77_n657
*242 mult_77_n656
*243 mult_77_n655
*244 mult_77_n892
*245 mult_77_n891
*246 mult_77_n890
*247 mult_77_n889
*248 mult_77_n888
*249 mult_77_n887
*250 mult_77_n886
*251 mult_77_n885
*252 mult_77_n884
*253 mult_77_n883
*254 mult_77_n882
*255 mult_77_n881
*256 mult_77_n880
*257 mult_77_n879
*258 mult_77_n878
*259 mult_77_n877
*260 mult_77_n876
*261 mult_77_n875
*262 mult_77_n874
*263 mult_77_n873
*264 mult_77_n872
*265 mult_77_n871
*266 mult_77_n870
*267 mult_77_n869
*268 mult_77_n868
*269 mult_77_n867
*270 mult_77_n866
*271 mult_77_n865
*272 mult_77_n864
*273 mult_77_n863
*274 mult_77_n862
*275 mult_77_n861
*276 mult_77_n860
*277 mult_77_n859
*278 mult_77_n858
*279 mult_77_n857
*280 mult_77_n856
*281 mult_77_n855
*282 mult_77_n854
*283 mult_77_n853
*284 mult_77_n852
*285 mult_77_n851
*286 mult_77_n850
*287 mult_77_n849
*288 mult_77_n848
*289 mult_77_n847
*290 mult_77_n846
*291 mult_77_n845
*292 mult_77_n844
*293 mult_77_n843
*294 mult_77_n842
*295 mult_77_n841
*296 mult_77_n840
*297 mult_77_n839
*298 mult_77_n838
*299 mult_77_n837
*300 mult_77_n836
*301 mult_77_n835
*302 mult_77_n834
*303 mult_77_n833
*304 mult_77_n832
*305 mult_77_n831
*306 mult_77_n830
*307 mult_77_n829
*308 mult_77_n828
*309 mult_77_n827
*310 mult_77_n826
*311 mult_77_n825
*312 mult_77_n824
*313 mult_77_n823
*314 mult_77_n822
*315 mult_77_n821
*316 mult_77_n820
*317 mult_77_n819
*318 mult_77_n818
*319 mult_77_n817
*320 mult_77_n816
*321 mult_77_n815
*322 mult_77_n814
*323 mult_77_n813
*324 mult_77_n812
*325 mult_77_n811
*326 mult_77_n810
*327 mult_77_n809
*328 mult_77_n808
*329 mult_77_n807
*330 mult_77_n806
*331 mult_77_n805
*332 mult_77_n804
*333 mult_77_n803
*334 mult_77_n802
*335 mult_77_n801
*336 mult_77_n800
*337 mult_77_n799
*338 mult_77_n798
*339 mult_77_n797
*340 mult_77_n796
*341 mult_77_n795
*342 mult_77_n794
*343 mult_77_n793
*344 mult_77_n792
*345 mult_77_n791
*346 mult_77_n790
*347 mult_77_n789
*348 mult_77_n788
*349 mult_77_n787
*350 mult_77_n786
*351 mult_77_n785
*352 mult_77_n784
*353 mult_77_n783
*354 mult_77_n782
*355 mult_77_n781
*356 mult_77_n780
*357 mult_77_n779
*358 mult_77_n778
*359 mult_77_n777
*360 mult_77_n776
*361 mult_77_n775
*362 mult_77_n774
*363 mult_77_n773
*364 mult_77_n772
*365 mult_77_n771
*366 mult_77_n770
*367 mult_77_n769
*368 mult_77_n768
*369 mult_77_n767
*370 mult_77_n766
*371 mult_77_n765
*372 mult_77_n764
*373 mult_77_n763
*374 mult_77_n762
*375 mult_77_n761
*376 mult_77_n760
*377 mult_77_n759
*378 mult_77_n758
*379 mult_77_n757
*380 mult_77_n756
*381 mult_77_n755
*382 mult_77_n754
*383 mult_77_n753
*384 mult_77_n752
*385 mult_77_n751
*386 mult_77_n750
*387 mult_77_n749
*388 mult_77_n748
*389 mult_77_n747
*390 mult_77_n746
*391 mult_77_n745
*392 mult_77_n744
*393 mult_77_n743
*394 mult_77_n742
*395 mult_77_n741
*396 mult_77_n740
*397 mult_77_n739
*398 mult_77_n738
*399 mult_77_n737
*400 mult_77_n736
*401 mult_77_n735
*402 mult_77_n734
*403 mult_77_n733
*404 mult_77_n732
*405 mult_77_n731
*406 mult_77_n730
*407 mult_77_n729
*408 mult_77_n728
*409 mult_77_n727
*410 mult_77_n726
*411 mult_77_n725
*412 mult_77_n724
*413 mult_77_n723
*414 mult_77_n722
*415 mult_77_n721
*416 mult_77_n720
*417 mult_77_n719
*418 mult_77_n718
*419 mult_77_n717
*420 mult_77_n716
*421 mult_77_n715
*422 mult_77_n714
*423 mult_77_n713
*424 mult_77_n712
*425 mult_77_n711
*426 mult_77_n710
*427 mult_77_n709
*428 mult_77_n708
*429 mult_77_n707
*430 mult_77_n706
*431 mult_77_n705
*432 mult_77_n704
*433 mult_77_n703
*434 mult_77_n702
*435 mult_77_n701
*436 mult_77_n700
*437 mult_77_n698
*438 mult_80_n332
*439 mult_80_n331
*440 mult_80_n330
*441 mult_80_n329
*442 mult_80_n328
*443 mult_80_n327
*444 mult_80_n326
*445 mult_80_n325
*446 mult_80_n324
*447 mult_80_n323
*448 mult_80_n322
*449 mult_80_n321
*450 mult_80_n320
*451 mult_80_n319
*452 mult_80_n318
*453 mult_80_n317
*454 mult_80_n316
*455 mult_80_n315
*456 mult_80_n314
*457 mult_80_n313
*458 mult_80_n312
*459 mult_80_n311
*460 mult_80_n310
*461 mult_80_n309
*462 mult_80_n283
*463 mult_80_n282
*464 mult_80_n281
*465 mult_80_n280
*466 mult_80_n279
*467 mult_80_n278
*468 mult_80_n277
*469 mult_80_n256
*470 mult_80_n255
*471 mult_80_n254
*472 mult_80_n253
*473 mult_80_n252
*474 mult_80_n251
*475 mult_80_n250
*476 mult_80_n233
*477 mult_80_n232
*478 mult_80_n231
*479 mult_80_n230
*480 mult_80_n220
*481 mult_80_n219
*482 mult_80_n218
*483 mult_80_n217
*484 mult_80_n216
*485 mult_80_n215
*486 mult_80_n214
*487 mult_80_n213
*488 mult_80_n212
*489 mult_80_n211
*490 mult_80_n210
*491 mult_80_n209
*492 mult_80_n208
*493 mult_80_n207
*494 mult_80_n206
*495 mult_80_n205
*496 mult_80_n204
*497 mult_80_n203
*498 mult_80_n202
*499 mult_80_n201
*500 mult_80_n200
*501 mult_80_n199
*502 mult_80_n198
*503 mult_80_n197
*504 mult_80_n196
*505 mult_80_n195
*506 mult_80_n194
*507 mult_80_n193
*508 mult_80_n192
*509 mult_80_n191
*510 mult_80_n190
*511 mult_80_n189
*512 mult_80_n188
*513 mult_80_n187
*514 mult_80_n186
*515 mult_80_n185
*516 mult_80_n184
*517 mult_80_n183
*518 mult_80_n182
*519 mult_80_n181
*520 mult_80_n180
*521 mult_80_n179
*522 mult_80_n178
*523 mult_80_n177
*524 mult_80_n176
*525 mult_80_n175
*526 mult_80_n174
*527 mult_80_n173
*528 mult_80_n171
*529 mult_80_n170
*530 mult_80_n169
*531 mult_80_n168
*532 mult_80_n167
*533 mult_80_n166
*534 mult_80_n165
*535 mult_80_n164
*536 mult_80_n162
*537 mult_80_n161
*538 mult_80_n160
*539 mult_80_n159
*540 mult_80_n158
*541 mult_80_n157
*542 mult_80_n156
*543 mult_80_n155
*544 mult_80_n153
*545 mult_80_n152
*546 mult_80_n151
*547 mult_80_n150
*548 mult_80_n149
*549 mult_80_n148
*550 mult_80_n147
*551 mult_80_n146
*552 mult_80_n145
*553 mult_80_n144
*554 mult_80_n143
*555 mult_80_n142
*556 mult_80_n141
*557 mult_80_n139
*558 mult_80_n136
*559 mult_80_n133
*560 mult_80_n130
*561 mult_80_n129
*562 mult_80_n128
*563 mult_80_n127
*564 mult_80_n126
*565 mult_80_n125
*566 mult_80_n124
*567 mult_80_n123
*568 mult_80_n122
*569 mult_80_n121
*570 mult_80_n120
*571 mult_80_n119
*572 mult_80_n118
*573 mult_80_n117
*574 mult_80_n116
*575 mult_80_n115
*576 mult_80_n114
*577 mult_80_n113
*578 mult_80_n112
*579 mult_80_n111
*580 mult_80_n110
*581 mult_80_n109
*582 mult_80_n108
*583 mult_80_n107
*584 mult_80_n106
*585 mult_80_n105
*586 mult_80_n104
*587 mult_80_n103
*588 mult_80_n102
*589 mult_80_n101
*590 mult_80_n99
*591 mult_80_n98
*592 mult_80_n97
*593 mult_80_n96
*594 mult_80_n95
*595 mult_80_n94
*596 mult_80_n93
*597 mult_80_n92
*598 mult_80_n91
*599 mult_80_n89
*600 mult_80_n88
*601 mult_80_n87
*602 mult_80_n86
*603 mult_80_n85
*604 mult_80_n71
*605 mult_80_n70
*606 mult_80_n69
*607 mult_80_n68
*608 mult_80_n66
*609 mult_80_n65
*610 mult_80_n64
*611 mult_80_n59
*612 mult_80_n58
*613 mult_80_n57
*614 mult_80_n56
*615 mult_80_n55
*616 mult_80_n54
*617 mult_80_n53
*618 mult_80_n52
*619 mult_80_n51
*620 mult_80_n50
*621 mult_80_n49
*622 mult_80_n48
*623 mult_80_n47
*624 mult_80_n46
*625 mult_80_n45
*626 mult_80_n44
*627 mult_80_n43
*628 mult_80_n42
*629 mult_80_n39
*630 mult_80_n38
*631 mult_80_n37
*632 mult_80_n34
*633 mult_80_n33
*634 mult_80_n32
*635 mult_80_n31
*636 mult_80_n30
*637 mult_80_n25
*638 mult_80_n24
*639 mult_80_n23
*640 mult_80_n22
*641 mult_80_n21
*642 mult_80_n20
*643 mult_80_n16
*644 mult_80_n15
*645 mult_80_n14
*646 mult_80_n13
*647 mult_80_n12
*648 mult_80_n11
*649 mult_80_n10
*650 mult_80_n9
*651 mult_80_n7
*652 mult_80_n6
*653 mult_80_n5
*654 mult_80_n4
*655 mult_80_n3
*656 mult_80_n2
*657 add_83_n80
*658 add_83_n79
*659 add_83_n78
*660 add_83_n70
*661 add_83_n69
*662 add_83_n68
*663 add_83_n63
*664 add_83_n62
*665 add_83_n61
*666 add_83_n59
*667 add_83_n58
*668 add_83_n56
*669 add_83_n23
*670 add_83_n22
*671 add_83_n21
*672 add_83_n19
*673 add_83_n18
*674 add_83_n17
*675 add_83_n16
*676 add_83_n15
*677 add_83_n14
*678 add_83_n13
*679 add_83_n12
*680 add_83_n11
*681 add_83_n10
*682 add_83_n9
*683 add_83_n8
*684 add_83_n1
*685 mult_66_n716
*686 mult_66_n637
*687 mult_66_n636
*688 mult_66_n635
*689 mult_66_n634
*690 mult_66_n633
*691 mult_66_n632
*692 mult_66_n631
*693 mult_66_n630
*694 mult_66_n629
*695 mult_66_n628
*696 mult_66_n627
*697 mult_66_n626
*698 mult_66_n625
*699 mult_66_n624
*700 mult_66_n623
*701 mult_66_n622
*702 mult_66_n621
*703 mult_66_n620
*704 mult_66_n619
*705 mult_66_n618
*706 mult_66_n617
*707 mult_66_n616
*708 mult_66_n615
*709 mult_66_n614
*710 mult_66_n613
*711 mult_66_n612
*712 mult_66_n611
*713 mult_66_n610
*714 mult_66_n609
*715 mult_66_n608
*716 mult_66_n607
*717 mult_66_n606
*718 mult_66_n605
*719 mult_66_n604
*720 mult_66_n603
*721 mult_66_n602
*722 mult_66_n601
*723 mult_66_n600
*724 mult_66_n599
*725 mult_66_n598
*726 mult_66_n835
*727 mult_66_n834
*728 mult_66_n833
*729 mult_66_n832
*730 mult_66_n831
*731 mult_66_n830
*732 mult_66_n829
*733 mult_66_n828
*734 mult_66_n827
*735 mult_66_n826
*736 mult_66_n825
*737 mult_66_n824
*738 mult_66_n823
*739 mult_66_n822
*740 mult_66_n821
*741 mult_66_n820
*742 mult_66_n819
*743 mult_66_n818
*744 mult_66_n817
*745 mult_66_n816
*746 mult_66_n815
*747 mult_66_n814
*748 mult_66_n813
*749 mult_66_n812
*750 mult_66_n811
*751 mult_66_n810
*752 mult_66_n809
*753 mult_66_n808
*754 mult_66_n807
*755 mult_66_n806
*756 mult_66_n805
*757 mult_66_n804
*758 mult_66_n803
*759 mult_66_n802
*760 mult_66_n801
*761 mult_66_n800
*762 mult_66_n799
*763 mult_66_n798
*764 mult_66_n797
*765 mult_66_n796
*766 mult_66_n795
*767 mult_66_n794
*768 mult_66_n793
*769 mult_66_n792
*770 mult_66_n791
*771 mult_66_n790
*772 mult_66_n789
*773 mult_66_n788
*774 mult_66_n787
*775 mult_66_n786
*776 mult_66_n785
*777 mult_66_n784
*778 mult_66_n783
*779 mult_66_n782
*780 mult_66_n781
*781 mult_66_n780
*782 mult_66_n779
*783 mult_66_n778
*784 mult_66_n777
*785 mult_66_n776
*786 mult_66_n775
*787 mult_66_n774
*788 mult_66_n773
*789 mult_66_n772
*790 mult_66_n771
*791 mult_66_n770
*792 mult_66_n769
*793 mult_66_n768
*794 mult_66_n767
*795 mult_66_n766
*796 mult_66_n765
*797 mult_66_n764
*798 mult_66_n763
*799 mult_66_n762
*800 mult_66_n761
*801 mult_66_n760
*802 mult_66_n759
*803 mult_66_n758
*804 mult_66_n757
*805 mult_66_n756
*806 mult_66_n755
*807 mult_66_n754
*808 mult_66_n753
*809 mult_66_n752
*810 mult_66_n751
*811 mult_66_n750
*812 mult_66_n749
*813 mult_66_n748
*814 mult_66_n747
*815 mult_66_n746
*816 mult_66_n745
*817 mult_66_n744
*818 mult_66_n743
*819 mult_66_n742
*820 mult_66_n741
*821 mult_66_n740
*822 mult_66_n739
*823 mult_66_n738
*824 mult_66_n737
*825 mult_66_n736
*826 mult_66_n735
*827 mult_66_n734
*828 mult_66_n733
*829 mult_66_n732
*830 mult_66_n731
*831 mult_66_n730
*832 mult_66_n729
*833 mult_66_n728
*834 mult_66_n727
*835 mult_66_n726
*836 mult_66_n725
*837 mult_66_n724
*838 mult_66_n723
*839 mult_66_n722
*840 mult_66_n721
*841 mult_66_n720
*842 mult_66_n719
*843 mult_66_n718
*844 mult_66_n717
*845 mult_66_n715
*846 mult_66_n714
*847 mult_66_n713
*848 mult_66_n712
*849 mult_66_n711
*850 mult_66_n710
*851 mult_66_n709
*852 mult_66_n708
*853 mult_66_n707
*854 mult_66_n706
*855 mult_66_n705
*856 mult_66_n704
*857 mult_66_n703
*858 mult_66_n702
*859 mult_66_n701
*860 mult_66_n700
*861 mult_66_n699
*862 mult_66_n698
*863 mult_66_n697
*864 mult_66_n696
*865 mult_66_n695
*866 mult_66_n694
*867 mult_66_n693
*868 mult_66_n692
*869 mult_66_n691
*870 mult_66_n690
*871 mult_66_n689
*872 mult_66_n688
*873 mult_66_n687
*874 mult_66_n686
*875 mult_66_n685
*876 mult_66_n684
*877 mult_66_n683
*878 mult_66_n682
*879 mult_66_n681
*880 mult_66_n680
*881 mult_66_n679
*882 mult_66_n678
*883 mult_66_n677
*884 mult_66_n676
*885 mult_66_n675
*886 mult_66_n674
*887 mult_66_n673
*888 mult_66_n672
*889 mult_66_n671
*890 mult_66_n670
*891 mult_66_n669
*892 mult_66_n668
*893 mult_66_n667
*894 mult_66_n666
*895 mult_66_n665
*896 mult_66_n664
*897 mult_66_n663
*898 mult_66_n662
*899 mult_66_n661
*900 mult_66_n660
*901 mult_66_n659
*902 mult_66_n658
*903 mult_66_n657
*904 mult_66_n656
*905 mult_66_n655
*906 mult_66_n654
*907 mult_66_n653
*908 mult_66_n652
*909 mult_66_n651
*910 mult_66_n650
*911 mult_66_n649
*912 mult_66_n648
*913 mult_66_n647
*914 mult_66_n646
*915 mult_66_n645
*916 mult_66_n644
*917 mult_66_n643
*918 mult_66_n642
*919 mult_66_n641
*920 mult_66_n640
*921 mult_66_n639
*922 mult_66_n638
*923 x[7]
*924 x[6]
*925 x[5]
*926 x[4]
*927 x[3]
*928 x[2]
*929 x[1]
*930 x[0]
*931 w[8]
*932 w[6]
*933 w[0]
*934 w_out[8]
*935 w_out[7]
*936 w_out[6]
*937 w_out[5]
*938 w_out[4]
*939 w_out[3]
*940 w_out[2]
*941 w_out[1]
*942 w_out[0]
*943 fb_tbs[15]
*944 fb_tbs[14]
*945 fb_tbs[13]
*946 fb_tbs[12]
*947 fb_tbs[11]
*948 fb_tbs[10]
*949 fb_tbs[9]
*950 y_tbs[5]
*951 y_tbs[4]
*952 y_tbs[3]
*953 y_tbs[2]
*954 y_tbs[1]
*955 y_tbs[0]
*956 FE_OFC7_mult_66_n668
*957 FE_OFC6_mult_66_n714
*958 FE_OFC5_mult_77_n730
*959 FE_OFC4_mult_80_n255
*960 FE_OFC3_mult_80_n256
*961 FE_OFC2_n31
*962 FE_OFC1_n33
*963 FE_OFC0_delay1
*964 U131
*965 U132
*966 U133
*967 U134
*968 U135
*969 U136
*970 U137
*971 U138
*972 U139
*973 U140
*974 U141
*975 U142
*976 U143
*977 U144
*978 U145
*979 U146
*980 U147
*981 U148
*982 U149
*983 U150
*984 U151
*985 U152
*986 U153
*987 U154
*988 U155
*989 U156
*990 U157
*991 U158
*992 U159
*993 U160
*994 U161
*995 U162
*996 U163
*997 U164
*998 U165
*999 U166
*1000 U167
*1001 U168
*1002 U169
*1003 U170
*1004 U171
*1005 U172
*1006 U173
*1007 U174
*1008 U175
*1009 U176
*1010 U177
*1011 U178
*1012 U179
*1013 U180
*1014 U181
*1015 U182
*1016 U183
*1017 U184
*1018 U185
*1019 U186
*1020 U187
*1021 U188
*1022 U189
*1023 U190
*1024 U191
*1025 U192
*1026 U193
*1027 U194
*1028 reg_in_U17
*1029 reg_in_U16
*1030 reg_in_U15
*1031 reg_in_U14
*1032 reg_in_U13
*1033 reg_in_U12
*1034 reg_in_U11
*1035 reg_in_U10
*1036 reg_in_U9
*1037 reg_in_U8
*1038 reg_in_U7
*1039 reg_in_U6
*1040 reg_in_U5
*1041 reg_in_U4
*1042 reg_in_U3
*1043 reg_in_U2
*1044 reg_in_Q_reg_0_
*1045 reg_in_Q_reg_1_
*1046 reg_in_Q_reg_2_
*1047 reg_in_Q_reg_3_
*1048 reg_in_Q_reg_4_
*1049 reg_in_Q_reg_5_
*1050 reg_in_Q_reg_6_
*1051 reg_in_Q_reg_7_
*1052 reg_filter_U19
*1053 reg_filter_U18
*1054 reg_filter_U17
*1055 reg_filter_U16
*1056 reg_filter_U15
*1057 reg_filter_U14
*1058 reg_filter_U13
*1059 reg_filter_U12
*1060 reg_filter_U11
*1061 reg_filter_U10
*1062 reg_filter_U9
*1063 reg_filter_U8
*1064 reg_filter_U7
*1065 reg_filter_U6
*1066 reg_filter_U5
*1067 reg_filter_U4
*1068 reg_filter_U3
*1069 reg_filter_U2
*1070 reg_filter_Q_reg_0_
*1071 reg_filter_Q_reg_2_
*1072 reg_filter_Q_reg_1_
*1073 reg_filter_Q_reg_3_
*1074 reg_filter_Q_reg_8_
*1075 reg_filter_Q_reg_6_
*1076 reg_filter_Q_reg_4_
*1077 reg_filter_Q_reg_5_
*1078 reg_filter_Q_reg_7_
*1079 reg_out_U18
*1080 reg_out_U16
*1081 reg_out_U13
*1082 reg_out_U12
*1083 reg_out_U11
*1084 reg_out_U10
*1085 reg_out_U9
*1086 reg_out_U8
*1087 reg_out_U7
*1088 reg_out_U6
*1089 reg_out_U5
*1090 reg_out_U4
*1091 reg_out_U3
*1092 reg_out_U2
*1093 reg_out_Q_reg_7_
*1094 reg_out_Q_reg_3_
*1095 reg_out_Q_reg_6_
*1096 reg_out_Q_reg_5_
*1097 reg_out_Q_reg_4_
*1098 reg_out_Q_reg_0_
*1099 reg_out_Q_reg_1_
*1100 reg_out_Q_reg_2_
*1101 f_d1_Q_reg
*1102 f_d2_Q_reg
*1103 mult_77_U497
*1104 mult_77_U496
*1105 mult_77_U467
*1106 mult_77_U466
*1107 mult_77_U465
*1108 mult_77_U464
*1109 mult_77_U463
*1110 mult_77_U462
*1111 mult_77_U461
*1112 mult_77_U460
*1113 mult_77_U459
*1114 mult_77_U458
*1115 mult_77_U457
*1116 mult_77_U456
*1117 mult_77_U455
*1118 mult_77_U454
*1119 mult_77_U453
*1120 mult_77_U452
*1121 mult_77_U451
*1122 mult_77_U450
*1123 mult_77_U449
*1124 mult_77_U448
*1125 mult_77_U447
*1126 mult_77_U446
*1127 mult_77_U445
*1128 mult_77_U444
*1129 mult_77_U443
*1130 mult_77_U442
*1131 mult_77_U441
*1132 mult_77_U440
*1133 mult_77_U439
*1134 mult_77_U438
*1135 mult_77_U437
*1136 mult_77_U436
*1137 mult_77_U435
*1138 mult_77_U434
*1139 mult_77_U433
*1140 mult_77_U432
*1141 mult_77_U431
*1142 mult_77_U430
*1143 mult_77_U429
*1144 mult_77_U428
*1145 mult_77_U427
*1146 mult_77_U426
*1147 mult_77_U425
*1148 mult_77_U424
*1149 mult_77_U423
*1150 mult_77_U422
*1151 mult_77_U421
*1152 mult_77_U420
*1153 mult_77_U419
*1154 mult_77_U418
*1155 mult_77_U417
*1156 mult_77_U416
*1157 mult_77_U415
*1158 mult_77_U414
*1159 mult_77_U413
*1160 mult_77_U412
*1161 mult_77_U411
*1162 mult_77_U410
*1163 mult_77_U409
*1164 mult_77_U408
*1165 mult_77_U407
*1166 mult_77_U406
*1167 mult_77_U405
*1168 mult_77_U404
*1169 mult_77_U403
*1170 mult_77_U402
*1171 mult_77_U401
*1172 mult_77_U400
*1173 mult_77_U399
*1174 mult_77_U398
*1175 mult_77_U397
*1176 mult_77_U396
*1177 mult_77_U395
*1178 mult_77_U394
*1179 mult_77_U393
*1180 mult_77_U392
*1181 mult_77_U391
*1182 mult_77_U390
*1183 mult_77_U389
*1184 mult_77_U388
*1185 mult_77_U387
*1186 mult_77_U386
*1187 mult_77_U385
*1188 mult_77_U384
*1189 mult_77_U383
*1190 mult_77_U382
*1191 mult_77_U381
*1192 mult_77_U380
*1193 mult_77_U379
*1194 mult_77_U378
*1195 mult_77_U377
*1196 mult_77_U376
*1197 mult_77_U375
*1198 mult_77_U374
*1199 mult_77_U373
*1200 mult_77_U372
*1201 mult_77_U371
*1202 mult_77_U370
*1203 mult_77_U369
*1204 mult_77_U368
*1205 mult_77_U367
*1206 mult_77_U366
*1207 mult_77_U365
*1208 mult_77_U364
*1209 mult_77_U363
*1210 mult_77_U362
*1211 mult_77_U361
*1212 mult_77_U360
*1213 mult_77_U359
*1214 mult_77_U358
*1215 mult_77_U357
*1216 mult_77_U356
*1217 mult_77_U355
*1218 mult_77_U354
*1219 mult_77_U353
*1220 mult_77_U352
*1221 mult_77_U351
*1222 mult_77_U350
*1223 mult_77_U349
*1224 mult_77_U348
*1225 mult_77_U347
*1226 mult_77_U346
*1227 mult_77_U345
*1228 mult_77_U344
*1229 mult_77_U343
*1230 mult_77_U342
*1231 mult_77_U341
*1232 mult_77_U340
*1233 mult_77_U339
*1234 mult_77_U338
*1235 mult_77_U337
*1236 mult_77_U336
*1237 mult_77_U335
*1238 mult_77_U334
*1239 mult_77_U333
*1240 mult_77_U332
*1241 mult_77_U331
*1242 mult_77_U330
*1243 mult_77_U329
*1244 mult_77_U328
*1245 mult_77_U327
*1246 mult_77_U326
*1247 mult_77_U325
*1248 mult_77_U324
*1249 mult_77_U323
*1250 mult_77_U322
*1251 mult_77_U321
*1252 mult_77_U320
*1253 mult_77_U319
*1254 mult_77_U318
*1255 mult_77_U317
*1256 mult_77_U316
*1257 mult_77_U315
*1258 mult_77_U314
*1259 mult_77_U313
*1260 mult_77_U312
*1261 mult_77_U311
*1262 mult_77_U310
*1263 mult_77_U309
*1264 mult_77_U308
*1265 mult_77_U307
*1266 mult_77_U306
*1267 mult_77_U305
*1268 mult_77_U304
*1269 mult_77_U303
*1270 mult_77_U302
*1271 mult_77_U301
*1272 mult_77_U300
*1273 mult_77_U299
*1274 mult_77_U298
*1275 mult_77_U297
*1276 mult_77_U296
*1277 mult_77_U295
*1278 mult_77_U294
*1279 mult_77_U293
*1280 mult_77_U292
*1281 mult_77_U291
*1282 mult_77_U290
*1283 mult_77_U289
*1284 mult_77_U288
*1285 mult_77_U287
*1286 mult_77_U286
*1287 mult_77_U285
*1288 mult_77_U284
*1289 mult_77_U283
*1290 mult_77_U282
*1291 mult_77_U281
*1292 mult_77_U280
*1293 mult_77_U279
*1294 mult_77_U278
*1295 mult_77_U277
*1296 mult_77_U276
*1297 mult_77_U275
*1298 mult_77_U274
*1299 mult_77_U273
*1300 mult_77_U272
*1301 mult_77_U271
*1302 mult_77_U270
*1303 mult_77_U269
*1304 mult_77_U268
*1305 mult_77_U267
*1306 mult_77_U266
*1307 mult_77_U265
*1308 mult_77_U264
*1309 mult_77_U263
*1310 mult_77_U262
*1311 mult_77_U261
*1312 mult_77_U260
*1313 mult_77_U259
*1314 mult_77_U258
*1315 mult_77_U257
*1316 mult_77_U256
*1317 mult_77_U500
*1318 mult_77_U499
*1319 mult_77_U498
*1320 mult_77_U495
*1321 mult_77_U494
*1322 mult_77_U493
*1323 mult_77_U492
*1324 mult_77_U491
*1325 mult_77_U490
*1326 mult_77_U489
*1327 mult_77_U488
*1328 mult_77_U487
*1329 mult_77_U486
*1330 mult_77_U485
*1331 mult_77_U484
*1332 mult_77_U483
*1333 mult_77_U482
*1334 mult_77_U481
*1335 mult_77_U480
*1336 mult_77_U479
*1337 mult_77_U478
*1338 mult_77_U477
*1339 mult_77_U476
*1340 mult_77_U475
*1341 mult_77_U474
*1342 mult_77_U473
*1343 mult_77_U472
*1344 mult_77_U471
*1345 mult_77_U470
*1346 mult_77_U469
*1347 mult_77_U468
*1348 mult_80_U423
*1349 mult_80_U422
*1350 mult_80_U421
*1351 mult_80_U420
*1352 mult_80_U419
*1353 mult_80_U418
*1354 mult_80_U417
*1355 mult_80_U415
*1356 mult_80_U414
*1357 mult_80_U412
*1358 mult_80_U411
*1359 mult_80_U409
*1360 mult_80_U408
*1361 mult_80_U406
*1362 mult_80_U405
*1363 mult_80_U403
*1364 mult_80_U402
*1365 mult_80_U401
*1366 mult_80_U400
*1367 mult_80_U399
*1368 mult_80_U398
*1369 mult_80_U397
*1370 mult_80_U396
*1371 mult_80_U395
*1372 mult_80_U394
*1373 mult_80_U393
*1374 mult_80_U392
*1375 mult_80_U391
*1376 mult_80_U390
*1377 mult_80_U389
*1378 mult_80_U388
*1379 mult_80_U387
*1380 mult_80_U386
*1381 mult_80_U385
*1382 mult_80_U384
*1383 mult_80_U383
*1384 mult_80_U382
*1385 mult_80_U381
*1386 mult_80_U380
*1387 mult_80_U379
*1388 mult_80_U378
*1389 mult_80_U377
*1390 mult_80_U376
*1391 mult_80_U375
*1392 mult_80_U374
*1393 mult_80_U373
*1394 mult_80_U372
*1395 mult_80_U371
*1396 mult_80_U370
*1397 mult_80_U369
*1398 mult_80_U368
*1399 mult_80_U367
*1400 mult_80_U366
*1401 mult_80_U365
*1402 mult_80_U364
*1403 mult_80_U363
*1404 mult_80_U362
*1405 mult_80_U361
*1406 mult_80_U360
*1407 mult_80_U359
*1408 mult_80_U358
*1409 mult_80_U357
*1410 mult_80_U356
*1411 mult_80_U355
*1412 mult_80_U354
*1413 mult_80_U353
*1414 mult_80_U352
*1415 mult_80_U351
*1416 mult_80_U350
*1417 mult_80_U349
*1418 mult_80_U348
*1419 mult_80_U347
*1420 mult_80_U346
*1421 mult_80_U345
*1422 mult_80_U344
*1423 mult_80_U343
*1424 mult_80_U342
*1425 mult_80_U341
*1426 mult_80_U340
*1427 mult_80_U339
*1428 mult_80_U338
*1429 mult_80_U337
*1430 mult_80_U336
*1431 mult_80_U335
*1432 mult_80_U334
*1433 mult_80_U333
*1434 mult_80_U332
*1435 mult_80_U331
*1436 mult_80_U330
*1437 mult_80_U329
*1438 mult_80_U328
*1439 mult_80_U327
*1440 mult_80_U326
*1441 mult_80_U325
*1442 mult_80_U324
*1443 mult_80_U323
*1444 mult_80_U322
*1445 mult_80_U321
*1446 mult_80_U320
*1447 mult_80_U319
*1448 mult_80_U318
*1449 mult_80_U317
*1450 mult_80_U316
*1451 mult_80_U315
*1452 mult_80_U314
*1453 mult_80_U313
*1454 mult_80_U312
*1455 mult_80_U311
*1456 mult_80_U310
*1457 mult_80_U309
*1458 mult_80_U308
*1459 mult_80_U307
*1460 mult_80_U306
*1461 mult_80_U305
*1462 mult_80_U304
*1463 mult_80_U303
*1464 mult_80_U302
*1465 mult_80_U301
*1466 mult_80_U300
*1467 mult_80_U299
*1468 mult_80_U298
*1469 mult_80_U297
*1470 mult_80_U296
*1471 mult_80_U295
*1472 mult_80_U294
*1473 mult_80_U293
*1474 mult_80_U292
*1475 mult_80_U291
*1476 mult_80_U290
*1477 mult_80_U289
*1478 mult_80_U288
*1479 mult_80_U287
*1480 mult_80_U286
*1481 mult_80_U285
*1482 mult_80_U284
*1483 mult_80_U283
*1484 mult_80_U282
*1485 mult_80_U281
*1486 mult_80_U280
*1487 mult_80_U279
*1488 mult_80_U278
*1489 mult_80_U277
*1490 mult_80_U276
*1491 mult_80_U275
*1492 mult_80_U274
*1493 mult_80_U273
*1494 mult_80_U272
*1495 mult_80_U271
*1496 mult_80_U270
*1497 mult_80_U269
*1498 mult_80_U268
*1499 mult_80_U267
*1500 mult_80_U266
*1501 mult_80_U265
*1502 mult_80_U264
*1503 mult_80_U263
*1504 mult_80_U262
*1505 mult_80_U261
*1506 mult_80_U260
*1507 mult_80_U259
*1508 mult_80_U258
*1509 mult_80_U257
*1510 mult_80_U256
*1511 mult_80_U255
*1512 mult_80_U254
*1513 mult_80_U252
*1514 mult_80_U251
*1515 mult_80_U250
*1516 mult_80_U249
*1517 mult_80_U248
*1518 mult_80_U247
*1519 mult_80_U246
*1520 mult_80_U245
*1521 mult_80_U244
*1522 mult_80_U243
*1523 mult_80_U242
*1524 mult_80_U241
*1525 mult_80_U240
*1526 mult_80_U239
*1527 mult_80_U238
*1528 mult_80_U413
*1529 mult_80_U410
*1530 mult_80_U407
*1531 mult_80_U404
*1532 mult_80_U253
*1533 mult_80_U114
*1534 mult_80_U113
*1535 mult_80_U112
*1536 mult_80_U111
*1537 mult_80_U110
*1538 mult_80_U109
*1539 mult_80_U108
*1540 mult_80_U107
*1541 mult_80_U106
*1542 mult_80_U105
*1543 mult_80_U104
*1544 mult_80_U103
*1545 mult_80_U100
*1546 mult_80_U99
*1547 mult_80_U97
*1548 mult_80_U96
*1549 mult_80_U95
*1550 mult_80_U94
*1551 mult_80_U92
*1552 mult_80_U91
*1553 add_83_U77
*1554 add_83_U76
*1555 add_83_U75
*1556 add_83_U74
*1557 add_83_U73
*1558 add_83_U72
*1559 add_83_U71
*1560 add_83_U70
*1561 add_83_U69
*1562 add_83_U68
*1563 add_83_U67
*1564 add_83_U66
*1565 add_83_U65
*1566 add_83_U63
*1567 add_83_U62
*1568 add_83_U60
*1569 add_83_U59
*1570 add_83_U58
*1571 add_83_U57
*1572 add_83_U56
*1573 add_83_U54
*1574 add_83_U53
*1575 add_83_U52
*1576 add_83_U51
*1577 add_83_U50
*1578 add_83_U49
*1579 add_83_U48
*1580 add_83_U47
*1581 add_83_U46
*1582 add_83_U45
*1583 add_83_U44
*1584 add_83_U42
*1585 add_83_U61
*1586 add_83_U41
*1587 mult_66_U474
*1588 mult_66_U452
*1589 mult_66_U441
*1590 mult_66_U440
*1591 mult_66_U439
*1592 mult_66_U438
*1593 mult_66_U437
*1594 mult_66_U436
*1595 mult_66_U435
*1596 mult_66_U434
*1597 mult_66_U433
*1598 mult_66_U432
*1599 mult_66_U431
*1600 mult_66_U430
*1601 mult_66_U429
*1602 mult_66_U428
*1603 mult_66_U427
*1604 mult_66_U426
*1605 mult_66_U425
*1606 mult_66_U424
*1607 mult_66_U423
*1608 mult_66_U422
*1609 mult_66_U421
*1610 mult_66_U420
*1611 mult_66_U419
*1612 mult_66_U418
*1613 mult_66_U417
*1614 mult_66_U416
*1615 mult_66_U415
*1616 mult_66_U414
*1617 mult_66_U413
*1618 mult_66_U412
*1619 mult_66_U411
*1620 mult_66_U410
*1621 mult_66_U409
*1622 mult_66_U408
*1623 mult_66_U407
*1624 mult_66_U406
*1625 mult_66_U405
*1626 mult_66_U404
*1627 mult_66_U403
*1628 mult_66_U402
*1629 mult_66_U401
*1630 mult_66_U400
*1631 mult_66_U399
*1632 mult_66_U398
*1633 mult_66_U397
*1634 mult_66_U396
*1635 mult_66_U395
*1636 mult_66_U394
*1637 mult_66_U393
*1638 mult_66_U392
*1639 mult_66_U391
*1640 mult_66_U390
*1641 mult_66_U389
*1642 mult_66_U388
*1643 mult_66_U387
*1644 mult_66_U386
*1645 mult_66_U385
*1646 mult_66_U384
*1647 mult_66_U383
*1648 mult_66_U382
*1649 mult_66_U381
*1650 mult_66_U380
*1651 mult_66_U379
*1652 mult_66_U378
*1653 mult_66_U377
*1654 mult_66_U376
*1655 mult_66_U375
*1656 mult_66_U374
*1657 mult_66_U373
*1658 mult_66_U372
*1659 mult_66_U371
*1660 mult_66_U370
*1661 mult_66_U369
*1662 mult_66_U368
*1663 mult_66_U367
*1664 mult_66_U366
*1665 mult_66_U365
*1666 mult_66_U364
*1667 mult_66_U363
*1668 mult_66_U362
*1669 mult_66_U361
*1670 mult_66_U360
*1671 mult_66_U359
*1672 mult_66_U358
*1673 mult_66_U357
*1674 mult_66_U356
*1675 mult_66_U355
*1676 mult_66_U354
*1677 mult_66_U353
*1678 mult_66_U352
*1679 mult_66_U351
*1680 mult_66_U350
*1681 mult_66_U349
*1682 mult_66_U348
*1683 mult_66_U347
*1684 mult_66_U346
*1685 mult_66_U345
*1686 mult_66_U344
*1687 mult_66_U343
*1688 mult_66_U342
*1689 mult_66_U341
*1690 mult_66_U340
*1691 mult_66_U339
*1692 mult_66_U338
*1693 mult_66_U337
*1694 mult_66_U336
*1695 mult_66_U335
*1696 mult_66_U334
*1697 mult_66_U333
*1698 mult_66_U332
*1699 mult_66_U331
*1700 mult_66_U330